/*--------------------------------*- C++ -*----------------------------------*\
| =========                 |                                                 |
| \\      /  F ield         | OpenFOAM: The Open Source CFD Toolbox           |
|  \\    /   O peration     | Version:  plus                                  |
|   \\  /    A nd           | Web:      www.OpenFOAM.com                      |
|    \\/     M anipulation  |                                                 |
\*---------------------------------------------------------------------------*/
FoamFile
{
    version     2.0;
    format      ascii;
    class       dictionary;
    object      changeDictionaryDict;
}
// * * * * * * * * * * * * * * * * * * * * * * * * * * * * * * * * * * * * * //

T
{
    internalField   uniform 295.34; 

    boundaryField
    {
        "Pin1_to_.*"
        {
	        type            compressible::turbulentTemperatureCoupledBaffleMixed;
	        Tnbr            T;
                kappaMethod     solidThermo;
		value           uniform 295.34; 
        }
    }
}

// ************************************************************************* //
