/*---------------------------------------------------------------------------*\
| =========                 |                                                 |
| \\      /  F ield         | OpenFOAM: The Open Source CFD Toolbox           |
|  \\    /   O peration     | Version:  1.0                                   |
|   \\  /    A nd           | Web:      http://www.openfoam.org               |
|    \\/     M anipulation  |                                                 |
\*---------------------------------------------------------------------------*/

FoamFile
{
    version         2.0;
    format          ascii;
    instance        "constant";
    class           dictionary;
    object          GAdaptDictionary;
}

// * * * * * * * * * * * * * * * * * * * * * * * * * * * * * * * * * * * * * //


// Target mass flux (adjust p_rgh inlet value to reach this parameter, units of kg/m^2-s)
Gbar 300;

//How much to over-relax correction
Relaxation 1.0;

// ************************************************************************* //
