/*--------------------------------*- C++ -*----------------------------------*\
| =========                 |                                                 |
| \\      /  F ield         | OpenFOAM: The Open Source CFD Toolbox           |
|  \\    /   O peration     | Version:  1.6                                   |
|   \\  /    A nd           | Web:      www.OpenFOAM.org                      |
|    \\/     M anipulation  |                                                 |
\*---------------------------------------------------------------------------*/
FoamFile
{
    version     2.0;
    format      ascii;
    class       dictionary;

    location    "constant";
    object      thermophysicalProperties;
}
// * * * * * * * * * * * * * * * * * * * * * * * * * * * * * * * * * * * * * //

thermoType
{
    type            heRhoThermo;
    mixture         pureMixture;
    transport       superTransport; //polynomial;
    thermo          superH; //hPolynomial;
    equationOfState PengRobinsonGasPConst; 
    specie          specie;
    energy          sensibleEnthalpy;
}

dpdt yes;

// Data for co2
mixture
{
    specie
    {
        nMoles      1;
        molWeight   44.01;
    }
    equationOfState
    {
        Pc           73.773e5;  //Pa
        Tc           304.13;    //K
        Vc           0.0021386; //m^3/kg
        omega        0.22394;  //Accentric factor
        PConst       8.1085635E6;  //Pa, pressure for purposes of density calculations
    }
    thermodynamics 
    {
	  cpL          2349;
          cpG          1798;
       	  TSpike       308.4;

          SpikeWidth1   0.45;
          cpSpike1      10000;
          SpikeWidth2   1.5;
          cpSpike2      10000;
          SpikeWidth3   4.5;
          cpSpike3      5500;
          SpikeWidth4   14.5;
          cpSpike4      2000;
    }
    transport
    {
		Pcr                    7.377E6;    //  Pa
		Trcoeff0	    	  -308.4;      //  -

       	        muLcoeff0			    0.0003467;  //  -
		muLcoeff1			   -0.0002983;  //  -
		muLcoeff2			    0.006374;   //  -
		muLcoeff3		           -1.442e-05;    //  -
		muLcoeff4			    0.487;    //  -

		muVcoeff0			    1.415e-05;   //  -
		muVcoeff1			    7.802e-06;    //  -
		muVcoeff2			   -0.1304;   //  -
		muVcoeff3			    4.953e-06;    //  -
		muVcoeff4			    0.004149;     //  -

       	        PrLcoeff0			    2.083;      //  -
		PrLcoeff1			    2.834;     //  -
		PrLcoeff2			    0.1279;      //  -
		PrLcoeff3		       	    8.351;      //  -
		PrLcoeff4			    0.8194;       //  -

		PrVcoeff0			    0.797;      //  -
		PrVcoeff1			    8.407;     //  -
		PrVcoeff2			   -0.4741;      //  -
		PrVcoeff3			    1.225;     //  -
		PrVcoeff4			   -0.03032;      //  -
    }
}



