/*--------------------------------*- C++ -*----------------------------------*\
| =========                 |                                                 |
| \\      /  F ield         | OpenFOAM: The Open Source CFD Toolbox           |
|  \\    /   O peration     | Version:  2.4.0                                 |
|   \\  /    A nd           | Web:      www.OpenFOAM.org                      |
|    \\/     M anipulation  |                                                 |
\*---------------------------------------------------------------------------*/
FoamFile
{
    version     2.0;
    format      ascii;
    class       volVectorField;
    object      U;
}
// * * * * * * * * * * * * * * * * * * * * * * * * * * * * * * * * * * * * * //

dimensions      [0 1 -1 0 0 0 0];

internalField   uniform (0 0 7); //(0 0 0);

boundaryField
{
    BotWall
    {
        type            fixedValue;
        value           uniform (0 0 0);
    }
    OtherWalls
    {
        type            fixedValue;
        value           uniform (0 0 0);
    }
    Inlet
    {
/*
		type				turbulentInlet;
		referenceField		uniform (0 0 10);
		fluctuationScale	(0.01 0.01 0.04); 
		alpha				0.1;
*/  

   /*    value           uniform (0 0 7);
        type            pressureInletUniformVelocity; */
        type           		 pressureInletTurbulentUniformVelocity;
        U              		 U;
        fluctuationScale  	 (0.01 0.01 0.04);
        alpha          		 0.1;
        value           	 uniform (0 0 7);
	}

    Outlet
    {
	// 	type			zeroGradient;
    //    type            pressureInletOutletVelocity;
        value           uniform (0 0 7);
        type            fluxCorrectedVelocity;
    }
}

// ************************************************************************* //
