/*--------------------------------*- C++ -*----------------------------------*\
| =========                 |                                                 |
| \\      /  F ield         | OpenFOAM: The Open Source CFD Toolbox           |
|  \\    /   O peration     | Version:  plus                                  |
|   \\  /    A nd           | Web:      www.OpenFOAM.com                      |
|    \\/     M anipulation  |                                                 |
\*---------------------------------------------------------------------------*/
FoamFile
{
    version     2.0;
    format      ascii;
    class       dictionary;
    object      changeDictionaryDict;
}
// * * * * * * * * * * * * * * * * * * * * * * * * * * * * * * * * * * * * * //

U
{
	internalField   uniform (0 0 0.1); 

	boundaryField
	{
	    "fluid_to_.*"
	    {
		type            noSlip;
	    }
	    "(BottWall|TopWall)"
	    {
		type            noSlip;
	    }
	    SideWall1
	    {
		type            cyclic;
	    }
	    SideWall2
	    {
		type            cyclic;
	    }
	    Inlet
	    {
		type            cyclic;
	    }
	    Outlet
	    {
		type            cyclic;
	    }
	}
}

T
{
	internalField   uniform 295.34; 

	boundaryField
	{
	    "fluid_to_.*"
	    {
		type            compressible::turbulentTemperatureCoupledBaffleMixed;
		Tnbr            T;
		kappaMethod     fluidThermo;
	        value           uniform 295.34; 
	    }
	    BottWall    
	    {
		type            fixedValue; 
		value           uniform 425.47;
	    }
	    TopWall
	    {
		type            fixedValue;
		value           uniform 425.47;
	    }
	     SideWall1
	    {
		type            cyclic;
	    }
	    SideWall2
	    {
		type            cyclic;
	    }
	    Inlet
	    {
		type            cyclic;
	    }
	    Outlet
	    {
		type            cyclic;
	    }
	}
}

nut
{
	internalField   uniform 0;

	boundaryField
	{
	    "fluid_to_.*"
	    {
		type            zeroGradient;
	    }
	    "(BottWall|TopWall)"
	    {
		type            zeroGradient;
	    }
	    SideWall1
	    {
		type            cyclic;
	    }
	    SideWall2
	    {
		type            cyclic;
	    }
	    Inlet
	    {
		type            cyclic;
	    }
	    Outlet
	    {
		type            cyclic;
	    }
	}
}

alphat
{
	internalField   uniform 0;

	boundaryField
	{
	    "fluid_to_.*"
	    {
		type            zeroGradient;
	    }
	    "(BottWall|TopWall)"
	    {
		type            zeroGradient;
	    }
	    SideWall1
	    {
		type            cyclic;
	    }
	    SideWall2
	    {
		type            cyclic;
	    }
	    Inlet
	    {
		type            cyclic;
	    }
	    Outlet
	    {
		type            cyclic;
	    }
	}
}

p_rgh
{
	internalField   uniform 8.1086299E6;

	boundaryField
	{
            "fluid_to_.*"
	    {
		type            fixedFluxPressure;
		value           uniform 8.1086299E6;
	    }
	    "(BottWall|TopWall)"
	    {
		type            fixedFluxPressure;
		value           uniform 8.1086299E6;
	    }
	    SideWall1
	    {
		type            cyclic;
	    }
	    SideWall2
	    {
		type            cyclic;
	    }
	    Inlet
	    {
		type            cyclic;
	    }
	    Outlet
	    {
		type            cyclic;
	    }
	}
}

p
{
    internalField   uniform 8.1086299E6;

    boundaryField
    {
        "fluid_to_.*"
        {
            type            calculated;
            value           $internalField;
        }
	    "(BottWall|TopWall)"
	    {
		 type            calculated;
		 value           $internalField;
	    }
	    SideWall1
	    {
		type            cyclic;
	    }
	    SideWall2
	    {
		type            cyclic;
	    }
	    Inlet
	    {
		type            cyclic;
	    }
	    Outlet
	    {
		type            cyclic;
	    }
    }
}

// ************************************************************************* //
