/*--------------------------------*- C++ -*----------------------------------*\
| =========                 |                                                 |
| \\      /  F ield         | OpenFOAM: The Open Source CFD Toolbox           |
|  \\    /   O peration     | Version:  plus                                  |
|   \\  /    A nd           | Web:      www.OpenFOAM.com                      |
|    \\/     M anipulation  |                                                 |
\*---------------------------------------------------------------------------*/
FoamFile
{
    version     2.0;
    format      ascii;
    class       dictionary;
    object      fvSchemes;
}
// * * * * * * * * * * * * * * * * * * * * * * * * * * * * * * * * * * * * * //

ddtSchemes
{
    ddt(rho)        Euler;
    default         backward;
}

gradSchemes
{
    default         Gauss cubic;//linear;
}

divSchemes
{
    default         none;
}

laplacianSchemes
{
    default             none;
    laplacian(alpha,h)  Gauss linear corrected;
  //  default         Gauss linear corrected;
}

interpolationSchemes
{
    default         cubic;  //linear; 
}

snGradSchemes
{
    default         quadraticFit 1;//corrected;
}


// ************************************************************************* //
